Version 4
SHEET 1 2536 1124
WIRE 2064 -608 976 -608
WIRE 2064 -528 2064 -608
WIRE 1216 -496 1168 -496
WIRE 1344 -496 1296 -496
WIRE 1440 -496 1344 -496
WIRE 1888 -496 1440 -496
WIRE 2064 -480 2064 -528
WIRE 2064 -480 1952 -480
WIRE 1888 -464 1744 -464
WIRE 1440 -400 1440 -496
WIRE 1632 -400 1632 -464
WIRE 1344 -352 1344 -496
WIRE 1392 -352 1344 -352
WIRE 1440 -304 1440 -320
WIRE 1440 -224 1440 -304
WIRE 1632 -224 1632 -240
WIRE 1744 -224 1744 -464
WIRE 1744 -224 1632 -224
WIRE 1648 -32 1728 -80
WIRE 1648 -32 1488 -32
WIRE 1824 -32 1648 -32
WIRE 1216 16 1216 -80
WIRE 1280 16 1216 16
WIRE 1440 16 1488 -32
WIRE 1440 16 1344 16
WIRE 1440 32 1440 16
WIRE 1488 32 1488 -32
WIRE 1824 64 1824 48
WIRE 1216 128 1216 16
WIRE 1376 128 1296 128
WIRE 1392 128 1376 128
WIRE 1440 128 1440 96
WIRE 1440 128 1392 128
WIRE 1488 128 1488 96
WIRE 1488 128 1440 128
WIRE 224 160 224 96
WIRE 1824 160 1824 128
WIRE 1824 160 1648 160
WIRE 288 176 224 160
WIRE 1376 176 1376 128
WIRE 1392 176 1392 128
WIRE 1456 176 1392 176
WIRE 336 192 288 176
WIRE 1136 208 1024 208
WIRE 1232 208 1136 208
WIRE 1600 240 1600 192
WIRE 1488 256 1488 128
WIRE 1648 256 1488 256
WIRE 1680 256 1648 256
WIRE 288 272 288 176
WIRE 1232 288 1232 208
WIRE 1312 288 1328 256
WIRE 1312 288 1232 288
WIRE 1392 288 1408 256
WIRE 1392 288 1312 288
WIRE 1376 304 1376 272
WIRE 1456 304 1456 272
WIRE 1456 304 1376 304
WIRE 336 368 336 272
WIRE 976 400 976 -608
WIRE 1328 400 976 400
WIRE 1376 432 1376 304
WIRE 288 448 288 352
WIRE 336 592 336 464
WIRE 336 592 288 592
WIRE 384 592 336 592
FLAG 224 96 Vdd
FLAG 288 592 Vss
FLAG 384 592 0
FLAG 1216 -80 Vdd
FLAG 1376 432 0
FLAG 1024 288 0
FLAG 1728 -80 Reg-vss
FLAG 1680 256 Reg-vdd
FLAG 1168 -496 Reg-vdd
FLAG 1440 -224 Reg-vss
FLAG 1920 -512 Vdd
FLAG 1920 -448 Vss
FLAG 1632 -464 Reg-vdd
FLAG 1632 -144 Reg-vss
FLAG 2144 -528 Vdd
FLAG 1600 192 attinypwm
FLAG 1136 208 attinypwm
SYMBOL Misc\\battery 336 176 R0
WINDOW 123 0 0 Left 2
WINDOW 39 24 132 Left 2
SYMATTR SpiceLine Rser=.005
SYMATTR InstName V1
SYMATTR Value PWL(0 4.2v 10s 2.5)
SYMBOL nmos 1328 176 R0
SYMATTR InstName M1
SYMATTR Value SiA436DJ
SYMATTR Prefix X
SYMBOL ind 1312 112 R90
WINDOW 0 5 56 VBottom 2
WINDOW 3 32 56 VTop 2
SYMATTR InstName L1
SYMATTR Value 10µ
SYMATTR SpiceLine Ipk=7 Rser=0.030 Rpar=15.707963 Cpar=0
SYMBOL schottky 1344 0 R90
WINDOW 0 0 32 VBottom 2
WINDOW 3 32 32 VTop 2
SYMATTR InstName D1
SYMATTR Value MBR20100CT
SYMBOL voltage 1024 192 R0
WINDOW 123 0 0 Left 2
WINDOW 39 0 0 Left 2
SYMATTR InstName V3
SYMATTR Value PULSE(0 6 0 10n 10n 2.0u 4u)
SYMBOL VoltageRegulators\\TL431 1440 -352 R0
SYMATTR InstName U1
SYMBOL res 1312 -512 R90
WINDOW 0 0 56 VBottom 2
WINDOW 3 32 56 VTop 2
SYMATTR InstName R4
SYMATTR Value 300
SYMBOL res 1616 -336 R0
SYMATTR InstName R5
SYMATTR Value 2k
SYMBOL res 1616 -240 R0
SYMATTR InstName R7
SYMATTR Value 10k
SYMBOL polcap 1456 96 R180
WINDOW 0 24 57 Left 2
WINDOW 3 24 8 Left 2
SYMATTR InstName C1
SYMATTR Value 100µ
SYMATTR SpiceLine V=16 Irms=0 Rser=0.007
SYMBOL polcap 1504 96 R180
WINDOW 0 24 57 Left 2
WINDOW 3 24 8 Left 2
SYMATTR InstName C2
SYMATTR Value 100µ
SYMATTR SpiceLine V=16 Irms=0 Rser=0.007
SYMBOL Opamps\\opamp2 1920 -544 R0
SYMATTR InstName U2
SYMATTR Value LM393
SYMBOL res 2160 -544 R90
WINDOW 0 0 56 VBottom 2
WINDOW 3 32 56 VTop 2
SYMATTR InstName R1
SYMATTR Value 10k
SYMBOL res 1808 -48 R0
SYMATTR InstName R2
SYMATTR Value 27
SYMATTR SpiceLine tol=5
SYMBOL nmos 288 368 R0
SYMATTR InstName M2
SYMATTR Value SiA436DJ
SYMATTR Prefix X
SYMBOL res 272 256 R0
SYMATTR InstName R6
SYMATTR Value 10k
SYMATTR SpiceLine tol=5
SYMBOL nmos 1600 160 R0
SYMATTR InstName M3
SYMATTR Value SiA436DJ
SYMATTR Prefix X
SYMBOL res 1616 -416 R0
SYMATTR InstName R3
SYMATTR Value 2k
SYMBOL LED 1808 64 R0
SYMATTR InstName D2
TEXT 192 464 Left 2 !.tran 10s
TEXT 512 96 Left 2 !.include LM741.MOD
TEXT 512 128 Left 2 !.lib LTC.lib
TEXT 1648 104 VLeft 2 ;LOAD
TEXT 512 64 Left 2 !.include LM393 PSPICE MODEL.LIB
TEXT 512 32 Left 2 !.include SiA436DJ_HS.txt
